LAMMPS (23 Jun 2022 - Update 1)
Loaded 1 plugins from /opt/deepmd-kit-2.2.1/lib/deepmd_lmp
# this input script is for simulating a 3d LiCl melt at 900K using LAMMPS.

units           metal
boundary        p p p
atom_style      atomic

read_data	licl.data
Reading data file ...
  orthogonal box = (0 0 0) to (11.858 11.858 11.858)
  reading atoms ...
  64 atoms
mass 		1 6.94
mass		2 35.45

pair_style	deepmd licl-compress.pb
Summary of lammps deepmd module ...
  >>> Info of deepmd-kit:
  installed to:       /opt/deepmd-kit-2.2.1
  source:             v2.2.1
  source branch:       HEAD
  source commit:      3ac8c4c7
  source commit at:   2023-03-16 12:33:24 +0800
  surpport model ver.:1.1
  build variant:      cuda
  build with tf inc:  /opt/deepmd-kit-2.2.1/include;/opt/deepmd-kit-2.2.1/include
  build with tf lib:  /opt/deepmd-kit-2.2.1/lib/libtensorflow_cc.so
  set tf intra_op_parallelism_threads: 0
  set tf inter_op_parallelism_threads: 0
  >>> Info of lammps module:
  use deepmd-kit at:  /opt/deepmd-kit-2.2.1pair_coeff  	* *

velocity        all create 900 23456789

fix             1 all nvt temp 900 900 0.5
timestep        0.001

# rdf calculation
compute 	 rdf all rdf 100 1 1 1 2 2 2
fix 		 2 all ave/time 100 1 100 c_rdf[*] file licl.rdf mode vector

thermo_style    custom step temp pe ke etotal press lx ly lz vol
thermo          100
dump		1 all custom 100 licl.dump id type x y z

run             100000

CITE-CITE-CITE-CITE-CITE-CITE-CITE-CITE-CITE-CITE-CITE-CITE-CITE

Your simulation uses code contributions which should be cited:

- USER-DEEPMD package:

@article{Wang_ComputPhysCommun_2018_v228_p178,
  author = {Wang, Han and Zhang, Linfeng and Han, Jiequn and E, Weinan},
  doi = {10.1016/j.cpc.2018.03.016},
  url = {https://doi.org/10.1016/j.cpc.2018.03.016},
  year = 2018,
  month = {jul},
  publisher = {Elsevier {BV}},
  volume = 228,
  journal = {Comput. Phys. Commun.},
  title = {{DeePMD-kit: A deep learning package for many-body potential energy representation and molecular dynamics}},
  pages = {178--184}
}

CITE-CITE-CITE-CITE-CITE-CITE-CITE-CITE-CITE-CITE-CITE-CITE-CITE

Generated 0 of 1 mixed pair_coeff terms from geometric mixing rule
  update every 1 steps, delay 10 steps, check yes
Step          Temp          PotEng         KinEng         TotEng         Press            Lx             Ly             Lz           Volume
0   900           -19445.396      7.3290502     -19438.067      35597.531      11.858         11.858         11.858         1667.379
Averages over the last 501 of 1001 rows, steps 50000 to 100000:
Temp PotEng KinEng TotEng Press Lx Ly Lz Volume
892.134 -19451.3 7.26499 -19444 -4003.75 11.858 11.858 11.858 1667.38
Loop time of 1153.56 on 1 procs for 100000 steps with 64 atoms
