LAMMPS (23 Jun 2022 - Update 1)
Loaded 1 plugins from /home/lws/miniconda3/envs/deepmd/lib/deepmd_lmp
Loaded 0 plugins from
# this input script is for simulating a 3d LiCl melt at 900K using LAMMPS.

# initialize simulation settings
units           metal
boundary        p p p
atom_style      charge

# define the simulation cell
read_data	licl.data
Reading data file ...
  orthogonal box = (0 0 0) to (13.44227 13.44227 13.44227)
  reading atoms ...
  108 atoms
group		Li  type 1
54 atoms in group Li
group		Cl  type 2
54 atoms in group Cl
set 		type 1 charge 1
Setting atom values ...
  54 settings made for charge
set 		type 2 charge -1
Setting atom values ...
  54 settings made for charge

# set force field
pair_style      born/coul/long 7
pair_coeff	1 1 0.4225000 0.3425 1.632 0.045625 0.01875
pair_coeff	1 2 0.2904688 0.3425 2.401 1.250000 1.50000
pair_coeff	2 2 0.1584375 0.3425 3.170 69.37500 139.375
kspace_style	ewald 1.0e-6

# nvt
velocity        all create 900 23456789
fix             1 all nvt temp 900 900 0.5
timestep        0.001

# rdf calculation
compute 	 rdf all rdf 100 1 1 1 2 2 2
fix 		 2 all ave/time 100 1 100 c_rdf[*] file licl.rdf mode vector

# msd calculation
compute          msd1 Li msd
compute          msd2 Cl msd
fix              3 all ave/time 100 1 100 c_msd1[4] c_msd2[4] file licl.msd

# output
thermo_style    custom step temp pe ke etotal press lx ly lz vol
thermo          1000
dump		1 all custom 1000 licl.dump id type x y z

run             200000
Ewald initialization ...
  G vector (1/distance) = 0.4944418
  estimated absolute RMS force accuracy = 1.4603535e-05
  estimated relative force accuracy = 1.0141594e-06
  KSpace vectors: actual max1d max3d = 1054 8 2456
                  kxmax kymax kzmax  = 8 8 8
Generated 0 of 1 mixed pair_coeff terms from geometric mixing rule
  update every 1 steps, delay 10 steps, check yes
Step          Temp          PotEng         KinEng         TotEng         Press            Lx             Ly             Lz           Volume
0   900           -440.62097      12.447752     -428.17322     -1521.1289      13.44227       13.44227       13.44227       2428.9461
Averages over the last 101 of 201 rows, steps 100000 to 200000:
Temp PotEng KinEng TotEng Press Lx Ly Lz Volume
889.591 -447.463 12.3038 -435.159 7672.82 13.4423 13.4423 13.4423 2428.95
Loop time of 154.22 on 1 procs for 200000 steps with 108 atoms
