data_none

_audit_creation_method generated by ABACUS

_cell_length_a 11.858
_cell_length_b 11.858
_cell_length_c 11.858
_cell_angle_alpha 90
_cell_angle_beta 90
_cell_angle_gamma 90

_symmetry_space_group_name_H-M 
_symmetry_Int_Tables_number 

loop_
_atom_site_label
_atom_site_fract_x
_atom_site_fract_y
_atom_site_fract_z
Li 0.254412 0.14977 0.369264
Li 0.293186 0.441257 0.173686
Li 0.0766158 0.329519 0.384663
Li 0.122742 0.995491 0.0756207
Li 0.808399 0.369724 0.110959
Li 0.450021 0.934896 0.376627
Li 0.635105 0.269144 0.917979
Li 0.522975 0.191845 0.193309
Li 0.915837 0.951332 0.339984
Li 0.735618 0.161413 0.422699
Li 0.0478276 0.501169 0.952285
Li 0.384918 0.127916 0.922559
Li 0.545975 0.546831 0.191161
Li 0.225712 0.832106 0.474733
Li 0.887586 0.581482 0.3844
Li 0.617129 0.912793 0.906949
Li 0.841768 0.703869 0.113678
Li 0.721036 0.760803 0.501811
Li 0.0193591 0.192214 0.895404
Li 0.451319 0.392118 0.497309
Li 0.234123 0.239427 0.729513
Li 0.0609428 0.0658526 0.60973
Li 0.786285 0.390331 0.604544
Li 0.594215 0.139766 0.607133
Li 0.798248 0.0256156 0.0797504
Li 0.0280081 0.801678 0.744884
Li 0.181595 0.488337 0.674605
Li 0.310258 0.930747 0.755829
Li 0.479808 0.630529 0.5673
Li 0.369686 0.669783 0.897917
Li 0.798207 0.621588 0.747552
Li 0.829454 0.99225 0.807652
Cl 0.202617 0.29042 0.266144
Cl 0.397565 0.474333 0.336989
Cl 0.423952 0.136755 0.396486
Cl 0.16969 0.202716 0.568748
Cl 0.956527 0.451217 0.484172
Cl 0.483239 0.312493 0.0595328
Cl 0.708792 0.24257 0.205309
Cl 0.867473 0.21264 0.950363
Cl 0.716563 0.590864 0.230948
Cl 0.944603 0.00742368 0.173622
Cl 0.350426 0.592311 0.0695632
Cl 0.173786 0.879018 0.641182
Cl 0.239655 0.947428 0.340639
Cl 0.43173 0.798237 0.523404
Cl 0.573386 0.0632189 0.994588
Cl 0.948145 0.556956 0.0667625
Cl 0.926817 0.75495 0.3863
Cl 0.224582 0.104772 0.966799
Cl 0.126666 0.358292 0.843388
Cl 0.387064 0.106703 0.742825
Cl 0.352099 0.475725 0.602372
Cl 0.63539 0.274637 0.51749
Cl 0.690334 0.0427618 0.72869
Cl 0.892545 0.130371 0.493212
Cl 0.00443498 0.0174279 0.808998
Cl 0.129616 0.661253 0.821829
Cl 0.433044 0.808281 0.826848
Cl 0.801637 0.851079 0.962953
Cl 0.687164 0.926269 0.350643
Cl 0.873849 0.779085 0.703721
Cl 0.766482 0.473839 0.808286
Cl 0.687473 0.610334 0.554661
